2R3K
  MOE2016           3D

 38 41  0  0  0  0  0  0  0  0999 V2000
    9.1340   45.2420   52.0380 C   0  0  0  0  0  0  0  0  0  0  0  0
    7.8760   44.6930   52.0950 C   0  0  0  0  0  0  0  0  0  0  0  0
    7.8680   43.6470   51.2210 N   0  0  0  0  0  0  0  0  0  0  0  0
    9.1060   43.5210   50.6040 N   0  0  0  0  0  0  0  0  0  0  0  0
    9.8640   44.4920   51.1080 C   0  0  0  0  0  0  0  0  0  0  0  0
    6.7220   45.0470   52.8720 C   0  0  0  0  0  0  0  0  0  0  0  0
    5.5920   44.3000   52.7070 C   0  0  0  0  0  0  0  0  0  0  0  0
    5.6070   43.2010   51.7770 C   0  0  0  0  0  0  0  0  0  0  0  0
    6.7480   42.8740   51.0350 C   0  0  0  0  0  0  0  0  0  0  0  0
    6.8390   41.8290   50.1390 N   0  0  0  0  0  0  0  0  0  0  0  0
    4.3500   44.6040   53.4690 C   0  0  0  0  0  0  0  0  0  0  0  0
    5.8260   40.7790   50.1650 C   0  0  0  0  0  0  0  0  0  0  0  0
    4.9340   40.9980   48.9940 C   0  0  0  0  0  0  0  0  0  0  0  0
    5.4210   41.0790   47.6850 C   0  0  0  0  0  0  0  0  0  0  0  0
    4.6310   41.3030   46.6360 N   0  0  0  0  0  0  0  0  0  0  0  0
    3.3290   41.4530   46.9100 C   0  0  0  0  0  0  0  0  0  0  0  0
    2.7410   41.4290   48.1190 N   0  0  0  0  0  0  0  0  0  0  0  0
    3.5570   41.1920   49.1530 C   0  0  0  0  0  0  0  0  0  0  0  0
    4.2870   44.4230   54.8620 C   0  0  0  0  0  0  0  0  0  0  0  0
    3.1120   44.7240   55.5650 C   0  0  0  0  0  0  0  0  0  0  0  0
    1.9930   45.2060   54.8840 C   0  0  0  0  0  0  0  0  0  0  0  0
    2.0520   45.3880   53.4990 C   0  0  0  0  0  0  0  0  0  0  0  0
    3.2260   45.0920   52.8010 C   0  0  0  0  0  0  0  0  0  0  0  0
    9.7230   46.6920   53.0020 Br  0  0  0  0  0  0  0  0  0  0  0  0
   10.8940   44.6750   50.8380 H   0  0  0  0  0  0  0  0  0  0  0  0
    6.7470   45.8760   53.5640 H   0  0  0  0  0  0  0  0  0  0  0  0
    4.7110   42.6110   51.6480 H   0  0  0  0  0  0  0  0  0  0  0  0
    7.5970   41.7910   49.4730 H   0  0  0  0  0  0  0  0  0  0  0  0
    5.2510   40.8380   51.0890 H   0  0  0  0  0  0  0  0  0  0  0  0
    6.3010   39.8000   50.0950 H   0  0  0  0  0  0  0  0  0  0  0  0
    6.4810   40.9550   47.5180 H   0  0  0  0  0  0  0  0  0  0  0  0
    2.6770   41.6110   46.0640 H   0  0  0  0  0  0  0  0  0  0  0  0
    3.1370   41.1490   50.1470 H   0  0  0  0  0  0  0  0  0  0  0  0
    5.1500   44.0500   55.3940 H   0  0  0  0  0  0  0  0  0  0  0  0
    3.0730   44.5830   56.6350 H   0  0  0  0  0  0  0  0  0  0  0  0
    1.0870   45.4370   55.4240 H   0  0  0  0  0  0  0  0  0  0  0  0
    1.1880   45.7580   52.9670 H   0  0  0  0  0  0  0  0  0  0  0  0
    3.2640   45.2430   51.7320 H   0  0  0  0  0  0  0  0  0  0  0  0
  1  2  2  0  0  0  0
  1  5  1  0  0  0  0
  1 24  1  0  0  0  0
  2  3  1  0  0  0  0
  2  6  1  0  0  0  0
  3  4  1  0  0  0  0
  3  9  1  0  0  0  0
  4  5  2  0  0  0  0
  5 25  1  0  0  0  0
  6  7  2  0  0  0  0
  6 26  1  0  0  0  0
  7  8  1  0  0  0  0
  7 11  1  0  0  0  0
  8  9  2  0  0  0  0
  8 27  1  0  0  0  0
  9 10  1  0  0  0  0
 10 12  1  0  0  0  0
 10 28  1  0  0  0  0
 11 19  1  0  0  0  0
 11 23  2  0  0  0  0
 12 13  1  0  0  0  0
 12 29  1  0  0  0  0
 12 30  1  0  0  0  0
 13 14  1  0  0  0  0
 13 18  2  0  0  0  0
 14 15  2  0  0  0  0
 14 31  1  0  0  0  0
 15 16  1  0  0  0  0
 16 17  2  0  0  0  0
 16 32  1  0  0  0  0
 17 18  1  0  0  0  0
 18 33  1  0  0  0  0
 19 20  2  0  0  0  0
 19 34  1  0  0  0  0
 20 21  1  0  0  0  0
 20 35  1  0  0  0  0
 21 22  2  0  0  0  0
 21 36  1  0  0  0  0
 22 23  1  0  0  0  0
 22 37  1  0  0  0  0
 23 38  1  0  0  0  0
M  END
>  <Charged>
Brc1c2n(C(NCc3cncnc3)=CC(c3ccccc3)=C2)nc1

$$$$
