2R3F
  MOE2016           3D

 38 41  0  0  0  0  0  0  0  0999 V2000
    9.2460   45.4120   52.0080 C   0  0  0  0  0  0  0  0  0  0  0  0
    7.9350   44.8510   52.0500 C   0  0  0  0  0  0  0  0  0  0  0  0
    7.9630   43.7960   51.0560 N   0  0  0  0  0  0  0  0  0  0  0  0
    9.1700   43.7090   50.4340 N   0  0  0  0  0  0  0  0  0  0  0  0
    9.9590   44.6420   51.0300 C   0  0  0  0  0  0  0  0  0  0  0  0
    6.8280   45.1500   52.7900 N   0  0  0  0  0  0  0  0  0  0  0  0
    5.7450   44.4090   52.5520 C   0  0  0  0  0  0  0  0  0  0  0  0
    5.7040   43.3080   51.6210 C   0  0  0  0  0  0  0  0  0  0  0  0
    6.8540   43.0090   50.8630 C   0  0  0  0  0  0  0  0  0  0  0  0
    6.9490   41.9670   49.9700 N   0  0  0  0  0  0  0  0  0  0  0  0
    4.5650   44.6620   53.4150 C   0  0  0  0  0  0  0  0  0  0  0  0
    5.9400   40.9290   50.0190 C   0  0  0  0  0  0  0  0  0  0  0  0
    4.9290   41.0780   48.9370 C   0  0  0  0  0  0  0  0  0  0  0  0
    3.5690   41.1310   49.2450 C   0  0  0  0  0  0  0  0  0  0  0  0
    2.6500   41.2910   48.1870 C   0  0  0  0  0  0  0  0  0  0  0  0
    3.0190   41.4150   46.8990 N   0  0  0  0  0  0  0  0  0  0  0  0
    4.3420   41.3380   46.6160 C   0  0  0  0  0  0  0  0  0  0  0  0
    5.3310   41.1900   47.6070 C   0  0  0  0  0  0  0  0  0  0  0  0
    4.7570   44.5870   54.8010 C   0  0  0  0  0  0  0  0  0  0  0  0
    3.7180   44.8680   55.6720 C   0  0  0  0  0  0  0  0  0  0  0  0
    2.4680   45.1960   55.1710 C   0  0  0  0  0  0  0  0  0  0  0  0
    2.2710   45.2790   53.7920 C   0  0  0  0  0  0  0  0  0  0  0  0
    3.3080   45.0180   52.9070 C   0  0  0  0  0  0  0  0  0  0  0  0
    3.0370   45.1260   51.2570 Cl  0  0  0  0  0  0  0  0  0  0  0  0
    0.7440   45.7330   53.2160 Cl  0  0  0  0  0  0  0  0  0  0  0  0
    9.6220   46.2410   52.5890 H   0  0  0  0  0  0  0  0  0  0  0  0
   11.0030   44.7870   50.7940 H   0  0  0  0  0  0  0  0  0  0  0  0
    4.8050   42.7210   51.5060 H   0  0  0  0  0  0  0  0  0  0  0  0
    7.7020   41.9270   49.2980 H   0  0  0  0  0  0  0  0  0  0  0  0
    5.4330   40.9770   50.9830 H   0  0  0  0  0  0  0  0  0  0  0  0
    6.4280   39.9600   49.9130 H   0  0  0  0  0  0  0  0  0  0  0  0
    3.2290   41.0520   50.2670 H   0  0  0  0  0  0  0  0  0  0  0  0
    1.5960   41.3150   48.4230 H   0  0  0  0  0  0  0  0  0  0  0  0
    4.6520   41.3930   45.5830 H   0  0  0  0  0  0  0  0  0  0  0  0
    6.3780   41.1640   47.3430 H   0  0  0  0  0  0  0  0  0  0  0  0
    5.7240   44.3080   55.1930 H   0  0  0  0  0  0  0  0  0  0  0  0
    3.8810   44.8320   56.7390 H   0  0  0  0  0  0  0  0  0  0  0  0
    1.6480   45.3870   55.8470 H   0  0  0  0  0  0  0  0  0  0  0  0
  1  2  2  0  0  0  0
  1  5  1  0  0  0  0
  1 26  1  0  0  0  0
  2  3  1  0  0  0  0
  2  6  1  0  0  0  0
  3  4  1  0  0  0  0
  3  9  1  0  0  0  0
  4  5  2  0  0  0  0
  5 27  1  0  0  0  0
  6  7  2  0  0  0  0
  7  8  1  0  0  0  0
  7 11  1  0  0  0  0
  8  9  2  0  0  0  0
  8 28  1  0  0  0  0
  9 10  1  0  0  0  0
 10 12  1  0  0  0  0
 10 29  1  0  0  0  0
 11 19  1  0  0  0  0
 11 23  2  0  0  0  0
 12 13  1  0  0  0  0
 12 30  1  0  0  0  0
 12 31  1  0  0  0  0
 13 14  1  0  0  0  0
 13 18  2  0  0  0  0
 14 15  2  0  0  0  0
 14 32  1  0  0  0  0
 15 16  1  0  0  0  0
 15 33  1  0  0  0  0
 16 17  2  0  0  0  0
 17 18  1  0  0  0  0
 17 34  1  0  0  0  0
 18 35  1  0  0  0  0
 19 20  2  0  0  0  0
 19 36  1  0  0  0  0
 20 21  1  0  0  0  0
 20 37  1  0  0  0  0
 21 22  2  0  0  0  0
 21 38  1  0  0  0  0
 22 23  1  0  0  0  0
 22 25  1  0  0  0  0
 23 24  1  0  0  0  0
M  END
>  <Charged>
Clc1c(Cl)cccc1C1=Nc2n(C(NCc3ccncc3)=C1)ncc2

$$$$
2R3H
  MOE2016           3D

 31 33  0  0  0  0  0  0  0  0999 V2000
    8.7810   45.1340   51.5400 C   0  0  0  0  0  0  0  0  0  0  0  0
    7.5330   44.5040   51.4080 N   0  0  0  0  0  0  0  0  0  0  0  0
    7.6890   43.4510   50.4500 C   0  0  0  0  0  0  0  0  0  0  0  0
    8.9760   43.4240   49.9530 N   0  0  0  0  0  0  0  0  0  0  0  0
    9.6680   44.4200   50.6640 C   0  0  0  0  0  0  0  0  0  0  0  0
    6.3050   44.7070   52.0190 C   0  0  0  0  0  0  0  0  0  0  0  0
    5.2440   43.8780   51.6620 C   0  0  0  0  0  0  0  0  0  0  0  0
    5.3100   42.8540   50.7550 N   0  0  0  0  0  0  0  0  0  0  0  0
    6.5030   42.6180   50.1460 C   0  0  0  0  0  0  0  0  0  0  0  0
    6.6590   41.6100   49.2150 N   0  0  0  0  0  0  0  0  0  0  0  0
    5.5940   40.6410   48.9980 C   0  0  0  0  0  0  0  0  0  0  0  0
    4.8000   40.8940   47.7410 C   0  0  0  0  0  0  0  0  0  0  0  0
    3.4100   41.0940   47.8100 C   0  0  0  0  0  0  0  0  0  0  0  0
    2.7040   41.3300   46.6130 C   0  0  0  0  0  0  0  0  0  0  0  0
    3.2950   41.3650   45.3920 N   0  0  0  0  0  0  0  0  0  0  0  0
    4.6290   41.1720   45.3480 C   0  0  0  0  0  0  0  0  0  0  0  0
    5.4180   40.9380   46.4910 C   0  0  0  0  0  0  0  0  0  0  0  0
    9.0580   46.2720   52.4300 C   0  0  0  0  0  0  0  0  0  0  0  0
   10.7240   44.6210   50.5650 H   0  0  0  0  0  0  0  0  0  0  0  0
    6.1740   45.4880   52.7530 H   0  0  0  0  0  0  0  0  0  0  0  0
    4.2920   44.0570   52.1390 H   0  0  0  0  0  0  0  0  0  0  0  0
    7.5150   41.5450   48.6830 H   0  0  0  0  0  0  0  0  0  0  0  0
    4.9140   40.6780   49.8490 H   0  0  0  0  0  0  0  0  0  0  0  0
    6.0390   39.6480   48.9320 H   0  0  0  0  0  0  0  0  0  0  0  0
    2.8950   41.0670   48.7590 H   0  0  0  0  0  0  0  0  0  0  0  0
    1.6380   41.4910   46.6710 H   0  0  0  0  0  0  0  0  0  0  0  0
    5.1180   41.1980   44.3850 H   0  0  0  0  0  0  0  0  0  0  0  0
    6.4850   40.7950   46.4010 H   0  0  0  0  0  0  0  0  0  0  0  0
    8.1430   46.5590   52.9490 H   0  0  0  0  0  0  0  0  0  0  0  0
    9.4210   47.1140   51.8410 H   0  0  0  0  0  0  0  0  0  0  0  0
    9.8150   45.9860   53.1600 H   0  0  0  0  0  0  0  0  0  0  0  0
  1  2  1  0  0  0  0
  1  5  2  0  0  0  0
  1 18  1  0  0  0  0
  2  3  1  0  0  0  0
  2  6  1  0  0  0  0
  3  4  2  0  0  0  0
  3  9  1  0  0  0  0
  4  5  1  0  0  0  0
  5 19  1  0  0  0  0
  6  7  2  0  0  0  0
  6 20  1  0  0  0  0
  7  8  1  0  0  0  0
  7 21  1  0  0  0  0
  8  9  2  0  0  0  0
  9 10  1  0  0  0  0
 10 11  1  0  0  0  0
 10 22  1  0  0  0  0
 11 12  1  0  0  0  0
 11 23  1  0  0  0  0
 11 24  1  0  0  0  0
 12 13  1  0  0  0  0
 12 17  2  0  0  0  0
 13 14  2  0  0  0  0
 13 25  1  0  0  0  0
 14 15  1  0  0  0  0
 14 26  1  0  0  0  0
 15 16  2  0  0  0  0
 16 17  1  0  0  0  0
 16 27  1  0  0  0  0
 17 28  1  0  0  0  0
 18 29  1  0  0  0  0
 18 30  1  0  0  0  0
 18 31  1  0  0  0  0
M  END
>  <Charged>
N(Cc1ccncc1)C1=NC=Cn2c(C)cnc12

$$$$
2R3I
  MOE2016           3D

 38 41  0  0  0  0  0  0  0  0999 V2000
    9.2250   45.3230   52.1220 C   0  0  0  0  0  0  0  0  0  0  0  0
    7.9230   44.8210   52.0420 C   0  0  0  0  0  0  0  0  0  0  0  0
    7.9360   43.9010   50.9860 N   0  0  0  0  0  0  0  0  0  0  0  0
    9.1630   43.7580   50.4460 N   0  0  0  0  0  0  0  0  0  0  0  0
    9.9530   44.6080   51.1340 C   0  0  0  0  0  0  0  0  0  0  0  0
    6.8100   45.1130   52.7340 N   0  0  0  0  0  0  0  0  0  0  0  0
    5.7310   44.4200   52.4050 C   0  0  0  0  0  0  0  0  0  0  0  0
    5.7030   43.4070   51.4100 C   0  0  0  0  0  0  0  0  0  0  0  0
    6.8470   43.1530   50.7040 C   0  0  0  0  0  0  0  0  0  0  0  0
    7.0020   42.1860   49.7730 N   0  0  0  0  0  0  0  0  0  0  0  0
    4.5050   44.6610   53.1720 C   0  0  0  0  0  0  0  0  0  0  0  0
    6.1540   41.0140   49.8060 C   0  0  0  0  0  0  0  0  0  0  0  0
    5.1530   41.0500   48.7170 C   0  0  0  0  0  0  0  0  0  0  0  0
    3.7950   41.0980   49.0190 C   0  0  0  0  0  0  0  0  0  0  0  0
    2.8730   41.1280   47.9460 C   0  0  0  0  0  0  0  0  0  0  0  0
    3.2510   41.1450   46.6480 N   0  0  0  0  0  0  0  0  0  0  0  0
    4.5770   41.1020   46.3840 C   0  0  0  0  0  0  0  0  0  0  0  0
    5.5590   41.0880   47.3900 C   0  0  0  0  0  0  0  0  0  0  0  0
    3.2820   44.9020   52.5080 C   0  0  0  0  0  0  0  0  0  0  0  0
    2.1020   45.1640   53.2140 C   0  0  0  0  0  0  0  0  0  0  0  0
    2.1340   45.1760   54.6060 C   0  0  0  0  0  0  0  0  0  0  0  0
    3.3150   44.9090   55.2980 C   0  0  0  0  0  0  0  0  0  0  0  0
    4.5240   44.6730   54.5920 C   0  0  0  0  0  0  0  0  0  0  0  0
    5.6850   44.4210   55.3270 F   0  0  0  0  0  0  0  0  0  0  0  0
    9.5960   46.0870   52.7890 H   0  0  0  0  0  0  0  0  0  0  0  0
   11.0110   44.7300   50.9550 H   0  0  0  0  0  0  0  0  0  0  0  0
    4.7990   42.8500   51.2150 H   0  0  0  0  0  0  0  0  0  0  0  0
    7.7070   42.2810   49.0560 H   0  0  0  0  0  0  0  0  0  0  0  0
    5.6360   40.9760   50.7640 H   0  0  0  0  0  0  0  0  0  0  0  0
    6.7720   40.1240   49.6920 H   0  0  0  0  0  0  0  0  0  0  0  0
    3.4550   41.1120   50.0440 H   0  0  0  0  0  0  0  0  0  0  0  0
    1.8180   41.1380   48.1750 H   0  0  0  0  0  0  0  0  0  0  0  0
    4.8960   41.0770   45.3530 H   0  0  0  0  0  0  0  0  0  0  0  0
    6.6080   41.1060   47.1350 H   0  0  0  0  0  0  0  0  0  0  0  0
    3.2570   44.8840   51.4280 H   0  0  0  0  0  0  0  0  0  0  0  0
    1.1790   45.3540   52.6860 H   0  0  0  0  0  0  0  0  0  0  0  0
    1.2320   45.3950   55.1570 H   0  0  0  0  0  0  0  0  0  0  0  0
    3.3100   44.8820   56.3780 H   0  0  0  0  0  0  0  0  0  0  0  0
  1  2  2  0  0  0  0
  1  5  1  0  0  0  0
  1 25  1  0  0  0  0
  2  3  1  0  0  0  0
  2  6  1  0  0  0  0
  3  4  1  0  0  0  0
  3  9  1  0  0  0  0
  4  5  2  0  0  0  0
  5 26  1  0  0  0  0
  6  7  2  0  0  0  0
  7  8  1  0  0  0  0
  7 11  1  0  0  0  0
  8  9  2  0  0  0  0
  8 27  1  0  0  0  0
  9 10  1  0  0  0  0
 10 12  1  0  0  0  0
 10 28  1  0  0  0  0
 11 19  1  0  0  0  0
 11 23  2  0  0  0  0
 12 13  1  0  0  0  0
 12 29  1  0  0  0  0
 12 30  1  0  0  0  0
 13 14  1  0  0  0  0
 13 18  2  0  0  0  0
 14 15  2  0  0  0  0
 14 31  1  0  0  0  0
 15 16  1  0  0  0  0
 15 32  1  0  0  0  0
 16 17  2  0  0  0  0
 17 18  1  0  0  0  0
 17 33  1  0  0  0  0
 18 34  1  0  0  0  0
 19 20  2  0  0  0  0
 19 35  1  0  0  0  0
 20 21  1  0  0  0  0
 20 36  1  0  0  0  0
 21 22  2  0  0  0  0
 21 37  1  0  0  0  0
 22 23  1  0  0  0  0
 22 38  1  0  0  0  0
 23 24  1  0  0  0  0
M  END
>  <Charged>
Fc1c(C2=Nc3n(C(NCc4ccncc4)=C2)ncc3)cccc1

$$$$
2R3J
  MOE2016           3D

 38 41  0  0  0  0  0  0  0  0999 V2000
    9.1870   45.1710   51.8890 C   0  0  0  0  0  0  0  0  0  0  0  0
    7.9330   44.6140   51.9560 C   0  0  0  0  0  0  0  0  0  0  0  0
    7.9020   43.6400   51.0030 N   0  0  0  0  0  0  0  0  0  0  0  0
    9.1120   43.5550   50.3320 N   0  0  0  0  0  0  0  0  0  0  0  0
    9.8860   44.4740   50.8970 C   0  0  0  0  0  0  0  0  0  0  0  0
    6.8890   44.9450   52.7900 N   0  0  0  0  0  0  0  0  0  0  0  0
    5.7770   44.2560   52.6280 C   0  0  0  0  0  0  0  0  0  0  0  0
    5.6900   43.2240   51.6440 C   0  0  0  0  0  0  0  0  0  0  0  0
    6.7670   42.8900   50.8260 C   0  0  0  0  0  0  0  0  0  0  0  0
    6.7940   41.9140   49.8490 N   0  0  0  0  0  0  0  0  0  0  0  0
    4.6440   44.5790   53.5060 C   0  0  0  0  0  0  0  0  0  0  0  0
    5.7770   40.8440   49.8580 C   0  0  0  0  0  0  0  0  0  0  0  0
    4.9050   40.9910   48.6360 C   0  0  0  0  0  0  0  0  0  0  0  0
    3.5040   41.0300   48.7150 C   0  0  0  0  0  0  0  0  0  0  0  0
    2.6880   41.1610   47.6610 N   0  0  0  0  0  0  0  0  0  0  0  0
    3.2630   41.2550   46.4580 C   0  0  0  0  0  0  0  0  0  0  0  0
    4.6400   41.2080   46.2590 C   0  0  0  0  0  0  0  0  0  0  0  0
    5.4720   41.0870   47.3680 C   0  0  0  0  0  0  0  0  0  0  0  0
    4.8560   44.8240   54.8680 C   0  0  0  0  0  0  0  0  0  0  0  0
    3.7850   45.1270   55.7260 C   0  0  0  0  0  0  0  0  0  0  0  0
    2.4860   45.1690   55.2320 C   0  0  0  0  0  0  0  0  0  0  0  0
    2.2530   44.9010   53.8790 C   0  0  0  0  0  0  0  0  0  0  0  0
    3.3220   44.6120   53.0260 C   0  0  0  0  0  0  0  0  0  0  0  0
    9.8430   46.5320   52.9560 Br  0  0  0  0  0  0  0  0  0  0  0  0
   10.9150   44.6590   50.6280 H   0  0  0  0  0  0  0  0  0  0  0  0
    4.7600   42.6860   51.5310 H   0  0  0  0  0  0  0  0  0  0  0  0
    7.5060   41.9320   49.1320 H   0  0  0  0  0  0  0  0  0  0  0  0
    5.1660   40.9270   50.7560 H   0  0  0  0  0  0  0  0  0  0  0  0
    6.2690   39.8710   49.8420 H   0  0  0  0  0  0  0  0  0  0  0  0
    3.0530   40.9490   49.6930 H   0  0  0  0  0  0  0  0  0  0  0  0
    2.6250   41.3740   45.5940 H   0  0  0  0  0  0  0  0  0  0  0  0
    5.0550   41.2640   45.2630 H   0  0  0  0  0  0  0  0  0  0  0  0
    6.5450   41.0680   47.2460 H   0  0  0  0  0  0  0  0  0  0  0  0
    5.8590   44.7790   55.2660 H   0  0  0  0  0  0  0  0  0  0  0  0
    3.9710   45.3280   56.7710 H   0  0  0  0  0  0  0  0  0  0  0  0
    1.6620   45.4070   55.8890 H   0  0  0  0  0  0  0  0  0  0  0  0
    1.2450   44.9170   53.4920 H   0  0  0  0  0  0  0  0  0  0  0  0
    3.1300   44.4110   51.9820 H   0  0  0  0  0  0  0  0  0  0  0  0
  1  2  2  0  0  0  0
  1  5  1  0  0  0  0
  1 24  1  0  0  0  0
  2  3  1  0  0  0  0
  2  6  1  0  0  0  0
  3  4  1  0  0  0  0
  3  9  1  0  0  0  0
  4  5  2  0  0  0  0
  5 25  1  0  0  0  0
  6  7  2  0  0  0  0
  7  8  1  0  0  0  0
  7 11  1  0  0  0  0
  8  9  2  0  0  0  0
  8 26  1  0  0  0  0
  9 10  1  0  0  0  0
 10 12  1  0  0  0  0
 10 27  1  0  0  0  0
 11 19  1  0  0  0  0
 11 23  2  0  0  0  0
 12 13  1  0  0  0  0
 12 28  1  0  0  0  0
 12 29  1  0  0  0  0
 13 14  1  0  0  0  0
 13 18  2  0  0  0  0
 14 15  2  0  0  0  0
 14 30  1  0  0  0  0
 15 16  1  0  0  0  0
 16 17  2  0  0  0  0
 16 31  1  0  0  0  0
 17 18  1  0  0  0  0
 17 32  1  0  0  0  0
 18 33  1  0  0  0  0
 19 20  2  0  0  0  0
 19 34  1  0  0  0  0
 20 21  1  0  0  0  0
 20 35  1  0  0  0  0
 21 22  2  0  0  0  0
 21 36  1  0  0  0  0
 22 23  1  0  0  0  0
 22 37  1  0  0  0  0
 23 38  1  0  0  0  0
M  END
>  <Charged>
Brc1c2n(C(NCc3cnccc3)=CC(c3ccccc3)=N2)nc1

$$$$
2R3K
  MOE2016           3D

 38 41  0  0  0  0  0  0  0  0999 V2000
    9.1340   45.2420   52.0380 C   0  0  0  0  0  0  0  0  0  0  0  0
    7.8760   44.6930   52.0950 C   0  0  0  0  0  0  0  0  0  0  0  0
    7.8680   43.6470   51.2210 N   0  0  0  0  0  0  0  0  0  0  0  0
    9.1060   43.5210   50.6040 N   0  0  0  0  0  0  0  0  0  0  0  0
    9.8640   44.4920   51.1080 C   0  0  0  0  0  0  0  0  0  0  0  0
    6.7220   45.0470   52.8720 C   0  0  0  0  0  0  0  0  0  0  0  0
    5.5920   44.3000   52.7070 C   0  0  0  0  0  0  0  0  0  0  0  0
    5.6070   43.2010   51.7770 C   0  0  0  0  0  0  0  0  0  0  0  0
    6.7480   42.8740   51.0350 C   0  0  0  0  0  0  0  0  0  0  0  0
    6.8390   41.8290   50.1390 N   0  0  0  0  0  0  0  0  0  0  0  0
    4.3500   44.6040   53.4690 C   0  0  0  0  0  0  0  0  0  0  0  0
    5.8260   40.7790   50.1650 C   0  0  0  0  0  0  0  0  0  0  0  0
    4.9340   40.9980   48.9940 C   0  0  0  0  0  0  0  0  0  0  0  0
    5.4210   41.0790   47.6850 C   0  0  0  0  0  0  0  0  0  0  0  0
    4.6310   41.3030   46.6360 N   0  0  0  0  0  0  0  0  0  0  0  0
    3.3290   41.4530   46.9100 C   0  0  0  0  0  0  0  0  0  0  0  0
    2.7410   41.4290   48.1190 N   0  0  0  0  0  0  0  0  0  0  0  0
    3.5570   41.1920   49.1530 C   0  0  0  0  0  0  0  0  0  0  0  0
    4.2870   44.4230   54.8620 C   0  0  0  0  0  0  0  0  0  0  0  0
    3.1120   44.7240   55.5650 C   0  0  0  0  0  0  0  0  0  0  0  0
    1.9930   45.2060   54.8840 C   0  0  0  0  0  0  0  0  0  0  0  0
    2.0520   45.3880   53.4990 C   0  0  0  0  0  0  0  0  0  0  0  0
    3.2260   45.0920   52.8010 C   0  0  0  0  0  0  0  0  0  0  0  0
    9.7230   46.6920   53.0020 Br  0  0  0  0  0  0  0  0  0  0  0  0
   10.8940   44.6750   50.8380 H   0  0  0  0  0  0  0  0  0  0  0  0
    6.7470   45.8760   53.5640 H   0  0  0  0  0  0  0  0  0  0  0  0
    4.7110   42.6110   51.6480 H   0  0  0  0  0  0  0  0  0  0  0  0
    7.5970   41.7910   49.4730 H   0  0  0  0  0  0  0  0  0  0  0  0
    5.2510   40.8380   51.0890 H   0  0  0  0  0  0  0  0  0  0  0  0
    6.3010   39.8000   50.0950 H   0  0  0  0  0  0  0  0  0  0  0  0
    6.4810   40.9550   47.5180 H   0  0  0  0  0  0  0  0  0  0  0  0
    2.6770   41.6110   46.0640 H   0  0  0  0  0  0  0  0  0  0  0  0
    3.1370   41.1490   50.1470 H   0  0  0  0  0  0  0  0  0  0  0  0
    5.1500   44.0500   55.3940 H   0  0  0  0  0  0  0  0  0  0  0  0
    3.0730   44.5830   56.6350 H   0  0  0  0  0  0  0  0  0  0  0  0
    1.0870   45.4370   55.4240 H   0  0  0  0  0  0  0  0  0  0  0  0
    1.1880   45.7580   52.9670 H   0  0  0  0  0  0  0  0  0  0  0  0
    3.2640   45.2430   51.7320 H   0  0  0  0  0  0  0  0  0  0  0  0
  1  2  2  0  0  0  0
  1  5  1  0  0  0  0
  1 24  1  0  0  0  0
  2  3  1  0  0  0  0
  2  6  1  0  0  0  0
  3  4  1  0  0  0  0
  3  9  1  0  0  0  0
  4  5  2  0  0  0  0
  5 25  1  0  0  0  0
  6  7  2  0  0  0  0
  6 26  1  0  0  0  0
  7  8  1  0  0  0  0
  7 11  1  0  0  0  0
  8  9  2  0  0  0  0
  8 27  1  0  0  0  0
  9 10  1  0  0  0  0
 10 12  1  0  0  0  0
 10 28  1  0  0  0  0
 11 19  1  0  0  0  0
 11 23  2  0  0  0  0
 12 13  1  0  0  0  0
 12 29  1  0  0  0  0
 12 30  1  0  0  0  0
 13 14  1  0  0  0  0
 13 18  2  0  0  0  0
 14 15  2  0  0  0  0
 14 31  1  0  0  0  0
 15 16  1  0  0  0  0
 16 17  2  0  0  0  0
 16 32  1  0  0  0  0
 17 18  1  0  0  0  0
 18 33  1  0  0  0  0
 19 20  2  0  0  0  0
 19 34  1  0  0  0  0
 20 21  1  0  0  0  0
 20 35  1  0  0  0  0
 21 22  2  0  0  0  0
 21 36  1  0  0  0  0
 22 23  1  0  0  0  0
 22 37  1  0  0  0  0
 23 38  1  0  0  0  0
M  END
>  <Charged>
Brc1c2n(C(NCc3cncnc3)=CC(c3ccccc3)=C2)nc1

$$$$
2R3L
  MOE2016           3D

 38 41  0  0  0  0  0  0  0  0999 V2000
    9.0940   45.1100   51.9530 C   0  0  0  0  0  0  0  0  0  0  0  0
    7.8660   44.5480   51.9660 N   0  0  0  0  0  0  0  0  0  0  0  0
    7.8590   43.5750   51.0130 C   0  0  0  0  0  0  0  0  0  0  0  0
    9.0600   43.4870   50.3710 N   0  0  0  0  0  0  0  0  0  0  0  0
    9.8330   44.4390   50.9710 C   0  0  0  0  0  0  0  0  0  0  0  0
    6.7510   44.8410   52.7500 C   0  0  0  0  0  0  0  0  0  0  0  0
    5.5890   44.1330   52.5690 C   0  0  0  0  0  0  0  0  0  0  0  0
    5.5460   43.1080   51.5830 C   0  0  0  0  0  0  0  0  0  0  0  0
    6.6600   42.8020   50.7930 C   0  0  0  0  0  0  0  0  0  0  0  0
    6.7330   41.8050   49.8610 N   0  0  0  0  0  0  0  0  0  0  0  0
    4.4190   44.3890   53.4490 C   0  0  0  0  0  0  0  0  0  0  0  0
    5.6940   40.7550   49.8820 C   0  0  0  0  0  0  0  0  0  0  0  0
    4.7450   40.9740   48.7420 C   0  0  0  0  0  0  0  0  0  0  0  0
    3.3580   41.1180   48.9320 C   0  0  0  0  0  0  0  0  0  0  0  0
    2.5090   41.3210   47.9040 N   0  0  0  0  0  0  0  0  0  0  0  0
    3.0740   41.3440   46.6770 C   0  0  0  0  0  0  0  0  0  0  0  0
    4.3720   41.2120   46.3770 N   0  0  0  0  0  0  0  0  0  0  0  0
    5.1950   41.0290   47.4160 C   0  0  0  0  0  0  0  0  0  0  0  0
    4.6080   44.7060   54.8030 C   0  0  0  0  0  0  0  0  0  0  0  0
    3.5070   44.9300   55.6440 C   0  0  0  0  0  0  0  0  0  0  0  0
    2.2110   44.8110   55.1490 C   0  0  0  0  0  0  0  0  0  0  0  0
    2.0070   44.4650   53.8050 C   0  0  0  0  0  0  0  0  0  0  0  0
    3.1040   44.2550   52.9610 C   0  0  0  0  0  0  0  0  0  0  0  0
    9.6650   46.5010   53.0350 Br  0  0  0  0  0  0  0  0  0  0  0  0
   10.8640   44.6450   50.7240 H   0  0  0  0  0  0  0  0  0  0  0  0
    6.8010   45.6210   53.4960 H   0  0  0  0  0  0  0  0  0  0  0  0
    4.6310   42.5520   51.4410 H   0  0  0  0  0  0  0  0  0  0  0  0
    7.4760   41.7870   49.1770 H   0  0  0  0  0  0  0  0  0  0  0  0
    5.1480   40.8020   50.8240 H   0  0  0  0  0  0  0  0  0  0  0  0
    6.1630   39.7760   49.7820 H   0  0  0  0  0  0  0  0  0  0  0  0
    2.9600   41.0640   49.9350 H   0  0  0  0  0  0  0  0  0  0  0  0
    2.4020   41.4850   45.8430 H   0  0  0  0  0  0  0  0  0  0  0  0
    6.2520   40.9190   47.2240 H   0  0  0  0  0  0  0  0  0  0  0  0
    5.6090   44.7780   55.2010 H   0  0  0  0  0  0  0  0  0  0  0  0
    3.6660   45.1960   56.6790 H   0  0  0  0  0  0  0  0  0  0  0  0
    1.3650   44.9850   55.7980 H   0  0  0  0  0  0  0  0  0  0  0  0
    1.0030   44.3610   53.4210 H   0  0  0  0  0  0  0  0  0  0  0  0
    2.9410   43.9880   51.9270 H   0  0  0  0  0  0  0  0  0  0  0  0
  1  2  1  0  0  0  0
  1  5  2  0  0  0  0
  1 24  1  0  0  0  0
  2  3  1  0  0  0  0
  2  6  1  0  0  0  0
  3  4  2  0  0  0  0
  3  9  1  0  0  0  0
  4  5  1  0  0  0  0
  5 25  1  0  0  0  0
  6  7  2  0  0  0  0
  6 26  1  0  0  0  0
  7  8  1  0  0  0  0
  7 11  1  0  0  0  0
  8  9  2  0  0  0  0
  8 27  1  0  0  0  0
  9 10  1  0  0  0  0
 10 12  1  0  0  0  0
 10 28  1  0  0  0  0
 11 19  1  0  0  0  0
 11 23  2  0  0  0  0
 12 13  1  0  0  0  0
 12 29  1  0  0  0  0
 12 30  1  0  0  0  0
 13 14  1  0  0  0  0
 13 18  2  0  0  0  0
 14 15  2  0  0  0  0
 14 31  1  0  0  0  0
 15 16  1  0  0  0  0
 16 17  2  0  0  0  0
 16 32  1  0  0  0  0
 17 18  1  0  0  0  0
 18 33  1  0  0  0  0
 19 20  2  0  0  0  0
 19 34  1  0  0  0  0
 20 21  1  0  0  0  0
 20 35  1  0  0  0  0
 21 22  2  0  0  0  0
 21 36  1  0  0  0  0
 22 23  1  0  0  0  0
 22 37  1  0  0  0  0
 23 38  1  0  0  0  0
M  END
>  <Charged>
Brc1n2c(C(NCc3cncnc3)=CC(c3ccccc3)=C2)nc1

$$$$
2R3M
  MOE2016           3D

 45 48  0  0  0  0  0  0  0  0999 V2000
    9.2250   45.5240   51.9810 C   0  0  0  0  0  0  0  0  0  0  0  0
    7.9750   44.9440   52.0890 C   0  0  0  0  0  0  0  0  0  0  0  0
    7.9510   43.8830   51.1910 N   0  0  0  0  0  0  0  0  0  0  0  0
    9.1440   43.7590   50.5070 N   0  0  0  0  0  0  0  0  0  0  0  0
    9.9020   44.7400   51.0030 C   0  0  0  0  0  0  0  0  0  0  0  0
    6.9010   45.2480   52.8950 N   0  0  0  0  0  0  0  0  0  0  0  0
    5.8510   44.5030   52.7720 C   0  0  0  0  0  0  0  0  0  0  0  0
    5.7320   43.3440   51.8380 C   0  0  0  0  0  0  0  0  0  0  0  0
    6.8160   43.0390   51.0870 C   0  0  0  0  0  0  0  0  0  0  0  0
    6.9130   41.9590   50.2200 N   0  0  0  0  0  0  0  0  0  0  0  0
    4.6740   44.7710   53.6300 C   0  0  0  0  0  0  0  0  0  0  0  0
    6.1030   40.7610   50.1480 C   0  0  0  0  0  0  0  0  0  0  0  0
    5.0230   40.9130   49.1420 C   0  0  0  0  0  0  0  0  0  0  0  0
    3.6970   40.8970   49.5000 C   0  0  0  0  0  0  0  0  0  0  0  0
    2.6880   41.0640   48.6260 N   0  0  0  0  0  0  0  0  0  0  0  0
    3.0360   41.2750   47.3430 C   0  0  0  0  0  0  0  0  0  0  0  0
    4.2960   41.3140   46.8830 N   0  0  0  0  0  0  0  0  0  0  0  0
    5.2640   41.1510   47.7940 C   0  0  0  0  0  0  0  0  0  0  0  0
    4.7850   44.5730   55.0040 C   0  0  0  0  0  0  0  0  0  0  0  0
    3.7150   44.8280   55.8660 C   0  0  0  0  0  0  0  0  0  0  0  0
    2.4920   45.2620   55.3500 C   0  0  0  0  0  0  0  0  0  0  0  0
    2.3590   45.4530   53.9750 C   0  0  0  0  0  0  0  0  0  0  0  0
    3.4520   45.2130   53.1260 C   0  0  0  0  0  0  0  0  0  0  0  0
    9.7400   46.6930   52.7370 C   0  0  0  0  0  0  0  0  0  0  0  0
    2.0380   41.4650   46.4480 N   0  0  0  0  0  0  0  0  0  0  0  0
    8.8620   47.9200   52.5740 C   0  0  0  0  0  0  0  0  0  0  0  0
    5.9230   44.1620   55.5420 F   0  0  0  0  0  0  0  0  0  0  0  0
    3.2780   45.4200   51.8090 F   0  0  0  0  0  0  0  0  0  0  0  0
   10.9210   44.9200   50.6950 H   0  0  0  0  0  0  0  0  0  0  0  0
    4.8180   42.7730   51.7650 H   0  0  0  0  0  0  0  0  0  0  0  0
    7.6580   42.0180   49.5400 H   0  0  0  0  0  0  0  0  0  0  0  0
    5.6570   40.5720   51.1250 H   0  0  0  0  0  0  0  0  0  0  0  0
    6.7360   39.9190   49.8680 H   0  0  0  0  0  0  0  0  0  0  0  0
    3.4510   40.7420   50.5400 H   0  0  0  0  0  0  0  0  0  0  0  0
    6.2900   41.2080   47.4620 H   0  0  0  0  0  0  0  0  0  0  0  0
    3.8340   44.6900   56.9300 H   0  0  0  0  0  0  0  0  0  0  0  0
    1.6570   45.4480   56.0090 H   0  0  0  0  0  0  0  0  0  0  0  0
    1.4170   45.7850   53.5640 H   0  0  0  0  0  0  0  0  0  0  0  0
   10.7410   46.9290   52.3770 H   0  0  0  0  0  0  0  0  0  0  0  0
    9.7860   46.4330   53.7950 H   0  0  0  0  0  0  0  0  0  0  0  0
    2.2560   41.6280   45.4750 H   0  0  0  0  0  0  0  0  0  0  0  0
    1.0750   41.4430   46.7530 H   0  0  0  0  0  0  0  0  0  0  0  0
    8.8080   48.1910   51.5190 H   0  0  0  0  0  0  0  0  0  0  0  0
    9.2870   48.7490   53.1400 H   0  0  0  0  0  0  0  0  0  0  0  0
    7.8610   47.7020   52.9450 H   0  0  0  0  0  0  0  0  0  0  0  0
  1  2  2  0  0  0  0
  1  5  1  0  0  0  0
  1 24  1  0  0  0  0
  2  3  1  0  0  0  0
  2  6  1  0  0  0  0
  3  4  1  0  0  0  0
  3  9  1  0  0  0  0
  4  5  2  0  0  0  0
  5 29  1  0  0  0  0
  6  7  2  0  0  0  0
  7  8  1  0  0  0  0
  7 11  1  0  0  0  0
  8  9  2  0  0  0  0
  8 30  1  0  0  0  0
  9 10  1  0  0  0  0
 10 12  1  0  0  0  0
 10 31  1  0  0  0  0
 11 19  1  0  0  0  0
 11 23  2  0  0  0  0
 12 13  1  0  0  0  0
 12 32  1  0  0  0  0
 12 33  1  0  0  0  0
 13 14  1  0  0  0  0
 13 18  2  0  0  0  0
 14 15  2  0  0  0  0
 14 34  1  0  0  0  0
 15 16  1  0  0  0  0
 16 17  2  0  0  0  0
 16 25  1  0  0  0  0
 17 18  1  0  0  0  0
 18 35  1  0  0  0  0
 19 20  2  0  0  0  0
 19 27  1  0  0  0  0
 20 21  1  0  0  0  0
 20 36  1  0  0  0  0
 21 22  2  0  0  0  0
 21 37  1  0  0  0  0
 22 23  1  0  0  0  0
 22 38  1  0  0  0  0
 23 28  1  0  0  0  0
 24 26  1  0  0  0  0
 24 39  1  0  0  0  0
 24 40  1  0  0  0  0
 25 41  1  0  0  0  0
 25 42  1  0  0  0  0
 26 43  1  0  0  0  0
 26 44  1  0  0  0  0
 26 45  1  0  0  0  0
M  END
>  <Charged>
Fc1c(c(F)ccc1)C1=Nc2c(CC)cnn2C(NCc2cnc(N)nc2)=C1

$$$$
2R3N
  MOE2016           3D

 45 49  0  0  0  0  0  0  0  0999 V2000
    8.7010   45.0060   51.7700 C   0  0  0  0  0  0  0  0  0  0  0  0
    7.4870   44.3330   51.7030 C   0  0  0  0  0  0  0  0  0  0  0  0
    7.6770   43.3270   50.7480 N   0  0  0  0  0  0  0  0  0  0  0  0
    8.9490   43.3650   50.2040 N   0  0  0  0  0  0  0  0  0  0  0  0
    9.5490   44.3640   50.8510 C   0  0  0  0  0  0  0  0  0  0  0  0
    6.2780   44.4880   52.3230 N   0  0  0  0  0  0  0  0  0  0  0  0
    5.3130   43.6260   51.9840 C   0  0  0  0  0  0  0  0  0  0  0  0
    5.4340   42.5600   50.9900 C   0  0  0  0  0  0  0  0  0  0  0  0
    6.6430   42.4250   50.4040 C   0  0  0  0  0  0  0  0  0  0  0  0
    6.9490   41.4840   49.4770 N   0  0  0  0  0  0  0  0  0  0  0  0
    3.9780   43.7480   52.6250 C   0  0  0  0  0  0  0  0  0  0  0  0
    6.2230   40.2810   49.1150 C   0  0  0  0  0  0  0  0  0  0  0  0
    5.1970   40.5190   48.0410 C   0  0  0  0  0  0  0  0  0  0  0  0
    5.5930   40.8230   46.7530 C   0  0  0  0  0  0  0  0  0  0  0  0
    4.7280   41.0110   45.7150 N   0  0  0  0  0  0  0  0  0  0  0  0
    3.4140   40.9000   45.9950 C   0  0  0  0  0  0  0  0  0  0  0  0
    2.9150   40.6250   47.2580 C   0  0  0  0  0  0  0  0  0  0  0  0
    3.8230   40.4350   48.2980 C   0  0  0  0  0  0  0  0  0  0  0  0
    3.6650   44.9280   53.2880 C   0  0  0  0  0  0  0  0  0  0  0  0
    2.4210   45.0930   53.9050 C   0  0  0  0  0  0  0  0  0  0  0  0
    1.4980   44.0530   53.8960 C   0  0  0  0  0  0  0  0  0  0  0  0
    1.8060   42.8550   53.2330 C   0  0  0  0  0  0  0  0  0  0  0  0
    3.0480   42.7020   52.5930 C   0  0  0  0  0  0  0  0  0  0  0  0
    9.1090   46.2030   52.5970 C   0  0  0  0  0  0  0  0  0  0  0  0
    8.0700   47.1140   53.1730 C   0  0  0  0  0  0  0  0  0  0  0  0
    8.8940   46.2300   54.0860 C   0  0  0  0  0  0  0  0  0  0  0  0
   10.5770   44.6500   50.6870 H   0  0  0  0  0  0  0  0  0  0  0  0
    4.6030   41.9170   50.7390 H   0  0  0  0  0  0  0  0  0  0  0  0
    7.8050   41.6430   48.9650 H   0  0  0  0  0  0  0  0  0  0  0  0
    5.7170   39.9000   50.0020 H   0  0  0  0  0  0  0  0  0  0  0  0
    6.9360   39.5390   48.7570 H   0  0  0  0  0  0  0  0  0  0  0  0
    6.6510   40.9170   46.5560 H   0  0  0  0  0  0  0  0  0  0  0  0
    2.7090   41.0330   45.1880 H   0  0  0  0  0  0  0  0  0  0  0  0
    1.8510   40.5600   47.4320 H   0  0  0  0  0  0  0  0  0  0  0  0
    3.4690   40.2240   49.2960 H   0  0  0  0  0  0  0  0  0  0  0  0
    4.3910   45.7270   53.3270 H   0  0  0  0  0  0  0  0  0  0  0  0
    2.1770   46.0280   54.3880 H   0  0  0  0  0  0  0  0  0  0  0  0
    0.5480   44.1670   54.3970 H   0  0  0  0  0  0  0  0  0  0  0  0
    1.0870   42.0490   53.2150 H   0  0  0  0  0  0  0  0  0  0  0  0
    3.2840   41.7820   52.0790 H   0  0  0  0  0  0  0  0  0  0  0  0
    9.9760   46.3330   51.9490 H   0  0  0  0  0  0  0  0  0  0  0  0
    7.0120   46.9020   53.0180 H   0  0  0  0  0  0  0  0  0  0  0  0
    8.2280   48.1920   53.1700 H   0  0  0  0  0  0  0  0  0  0  0  0
    9.6470   46.6700   54.7390 H   0  0  0  0  0  0  0  0  0  0  0  0
    8.4310   45.3800   54.5870 H   0  0  0  0  0  0  0  0  0  0  0  0
  1  2  2  0  0  0  0
  1  5  1  0  0  0  0
  1 24  1  0  0  0  0
  2  3  1  0  0  0  0
  2  6  1  0  0  0  0
  3  4  1  0  0  0  0
  3  9  1  0  0  0  0
  4  5  2  0  0  0  0
  5 27  1  0  0  0  0
  6  7  2  0  0  0  0
  7  8  1  0  0  0  0
  7 11  1  0  0  0  0
  8  9  2  0  0  0  0
  8 28  1  0  0  0  0
  9 10  1  0  0  0  0
 10 12  1  0  0  0  0
 10 29  1  0  0  0  0
 11 19  1  0  0  0  0
 11 23  2  0  0  0  0
 12 13  1  0  0  0  0
 12 30  1  0  0  0  0
 12 31  1  0  0  0  0
 13 14  1  0  0  0  0
 13 18  2  0  0  0  0
 14 15  2  0  0  0  0
 14 32  1  0  0  0  0
 15 16  1  0  0  0  0
 16 17  2  0  0  0  0
 16 33  1  0  0  0  0
 17 18  1  0  0  0  0
 17 34  1  0  0  0  0
 18 35  1  0  0  0  0
 19 20  2  0  0  0  0
 19 36  1  0  0  0  0
 20 21  1  0  0  0  0
 20 37  1  0  0  0  0
 21 22  2  0  0  0  0
 21 38  1  0  0  0  0
 22 23  1  0  0  0  0
 22 39  1  0  0  0  0
 23 40  1  0  0  0  0
 24 25  1  0  0  0  0
 24 26  1  0  0  0  0
 24 41  1  0  0  0  0
 25 26  1  0  0  0  0
 25 42  1  0  0  0  0
 25 43  1  0  0  0  0
 26 44  1  0  0  0  0
 26 45  1  0  0  0  0
M  END
$$$$
2R3O
  MOE2016           3D

 42 45  0  0  0  0  0  0  0  0999 V2000
    8.8170   44.9720   51.5900 C   0  0  0  0  0  0  0  0  0  0  0  0
    7.5750   44.3600   51.4280 C   0  0  0  0  0  0  0  0  0  0  0  0
    7.7370   43.3710   50.4780 N   0  0  0  0  0  0  0  0  0  0  0  0
    9.0330   43.3090   50.0280 N   0  0  0  0  0  0  0  0  0  0  0  0
    9.6680   44.2590   50.7230 C   0  0  0  0  0  0  0  0  0  0  0  0
    6.3610   44.6050   52.0340 N   0  0  0  0  0  0  0  0  0  0  0  0
    5.3580   43.8390   51.6570 C   0  0  0  0  0  0  0  0  0  0  0  0
    5.4520   42.7610   50.6390 C   0  0  0  0  0  0  0  0  0  0  0  0
    6.6570   42.5440   50.0770 C   0  0  0  0  0  0  0  0  0  0  0  0
    6.9330   41.5800   49.1320 N   0  0  0  0  0  0  0  0  0  0  0  0
    4.0110   44.0180   52.2910 C   0  0  0  0  0  0  0  0  0  0  0  0
    6.1880   40.3900   48.8070 C   0  0  0  0  0  0  0  0  0  0  0  0
    5.2790   40.6030   47.6420 C   0  0  0  0  0  0  0  0  0  0  0  0
    5.7920   40.6330   46.3510 C   0  0  0  0  0  0  0  0  0  0  0  0
    5.0410   40.7960   45.2340 N   0  0  0  0  0  0  0  0  0  0  0  0
    3.7120   40.9650   45.4170 C   0  0  0  0  0  0  0  0  0  0  0  0
    3.1030   40.9710   46.6700 C   0  0  0  0  0  0  0  0  0  0  0  0
    3.9010   40.7660   47.7840 C   0  0  0  0  0  0  0  0  0  0  0  0
    3.6750   45.2750   52.8010 C   0  0  0  0  0  0  0  0  0  0  0  0
    2.4250   45.4730   53.4120 C   0  0  0  0  0  0  0  0  0  0  0  0
    1.5170   44.4140   53.5170 C   0  0  0  0  0  0  0  0  0  0  0  0
    1.8470   43.1520   53.0050 C   0  0  0  0  0  0  0  0  0  0  0  0
    3.0970   42.9530   52.3930 C   0  0  0  0  0  0  0  0  0  0  0  0
    9.1570   46.1250   52.4670 C   0  0  0  0  0  0  0  0  0  0  0  0
    9.2680   45.7630   53.8430 O   0  0  0  0  0  0  0  0  0  0  0  0
   10.7250   44.4590   50.6290 H   0  0  0  0  0  0  0  0  0  0  0  0
    4.5890   42.1750   50.3610 H   0  0  0  0  0  0  0  0  0  0  0  0
    7.7740   41.7280   48.5920 H   0  0  0  0  0  0  0  0  0  0  0  0
    5.5910   40.1010   49.6720 H   0  0  0  0  0  0  0  0  0  0  0  0
    6.8890   39.5910   48.5660 H   0  0  0  0  0  0  0  0  0  0  0  0
    6.8590   40.5190   46.2290 H   0  0  0  0  0  0  0  0  0  0  0  0
    3.0890   41.1030   44.5450 H   0  0  0  0  0  0  0  0  0  0  0  0
    2.0400   41.1310   46.7700 H   0  0  0  0  0  0  0  0  0  0  0  0
    3.4540   40.7320   48.7670 H   0  0  0  0  0  0  0  0  0  0  0  0
    4.3750   46.0940   52.7260 H   0  0  0  0  0  0  0  0  0  0  0  0
    2.1650   46.4460   53.8020 H   0  0  0  0  0  0  0  0  0  0  0  0
    0.5600   44.5690   53.9930 H   0  0  0  0  0  0  0  0  0  0  0  0
    1.1440   42.3360   53.0800 H   0  0  0  0  0  0  0  0  0  0  0  0
    3.3560   41.9810   52.0000 H   0  0  0  0  0  0  0  0  0  0  0  0
    8.3760   46.8790   52.3680 H   0  0  0  0  0  0  0  0  0  0  0  0
   10.1090   46.5420   52.1390 H   0  0  0  0  0  0  0  0  0  0  0  0
    8.4230   45.3980   54.1160 H   0  0  0  0  0  0  0  0  0  0  0  0
  1  2  2  0  0  0  0
  1  5  1  0  0  0  0
  1 24  1  0  0  0  0
  2  3  1  0  0  0  0
  2  6  1  0  0  0  0
  3  4  1  0  0  0  0
  3  9  1  0  0  0  0
  4  5  2  0  0  0  0
  5 26  1  0  0  0  0
  6  7  2  0  0  0  0
  7  8  1  0  0  0  0
  7 11  1  0  0  0  0
  8  9  2  0  0  0  0
  8 27  1  0  0  0  0
  9 10  1  0  0  0  0
 10 12  1  0  0  0  0
 10 28  1  0  0  0  0
 11 19  1  0  0  0  0
 11 23  2  0  0  0  0
 12 13  1  0  0  0  0
 12 29  1  0  0  0  0
 12 30  1  0  0  0  0
 13 14  1  0  0  0  0
 13 18  2  0  0  0  0
 14 15  2  0  0  0  0
 14 31  1  0  0  0  0
 15 16  1  0  0  0  0
 16 17  2  0  0  0  0
 16 32  1  0  0  0  0
 17 18  1  0  0  0  0
 17 33  1  0  0  0  0
 18 34  1  0  0  0  0
 19 20  2  0  0  0  0
 19 35  1  0  0  0  0
 20 21  1  0  0  0  0
 20 36  1  0  0  0  0
 21 22  2  0  0  0  0
 21 37  1  0  0  0  0
 22 23  1  0  0  0  0
 22 38  1  0  0  0  0
 23 39  1  0  0  0  0
 24 25  1  0  0  0  0
 24 40  1  0  0  0  0
 24 41  1  0  0  0  0
 25 42  1  0  0  0  0
M  END
>  <Charged>
OCc1c2n(C(NCc3cnccc3)=CC(c3ccccc3)=N2)nc1

$$$$
2R3P
  MOE2016           3D

 40 43  0  0  0  0  0  0  0  0999 V2000
    8.9780   45.4640   51.8800 C   0  0  0  0  0  0  0  0  0  0  0  0
    7.7350   44.8880   51.9400 C   0  0  0  0  0  0  0  0  0  0  0  0
    7.7700   43.8000   51.0610 N   0  0  0  0  0  0  0  0  0  0  0  0
    9.0070   43.6640   50.4520 N   0  0  0  0  0  0  0  0  0  0  0  0
    9.7290   44.6790   50.9580 C   0  0  0  0  0  0  0  0  0  0  0  0
    6.6220   45.2200   52.6500 N   0  0  0  0  0  0  0  0  0  0  0  0
    5.5920   44.4790   52.4940 C   0  0  0  0  0  0  0  0  0  0  0  0
    5.5200   43.2860   51.6080 C   0  0  0  0  0  0  0  0  0  0  0  0
    6.6480   42.9780   50.9050 C   0  0  0  0  0  0  0  0  0  0  0  0
    6.7780   41.9080   50.0360 N   0  0  0  0  0  0  0  0  0  0  0  0
    4.3640   44.7610   53.2710 C   0  0  0  0  0  0  0  0  0  0  0  0
    5.9110   40.7620   49.9310 C   0  0  0  0  0  0  0  0  0  0  0  0
    4.9110   41.0160   48.8470 C   0  0  0  0  0  0  0  0  0  0  0  0
    5.3210   41.2190   47.5330 C   0  0  0  0  0  0  0  0  0  0  0  0
    4.3530   41.4480   46.5800 C   0  0  0  0  0  0  0  0  0  0  0  0
    3.0140   41.4870   46.8320 N   0  0  0  0  0  0  0  0  0  0  0  0
    2.6410   41.2930   48.0990 C   0  0  0  0  0  0  0  0  0  0  0  0
    3.5390   41.0510   49.1360 C   0  0  0  0  0  0  0  0  0  0  0  0
    4.3680   44.7180   54.6790 C   0  0  0  0  0  0  0  0  0  0  0  0
    3.1850   44.9730   55.3800 C   0  0  0  0  0  0  0  0  0  0  0  0
    2.0180   45.2600   54.6830 C   0  0  0  0  0  0  0  0  0  0  0  0
    2.0200   45.3050   53.2950 C   0  0  0  0  0  0  0  0  0  0  0  0
    3.1890   45.0470   52.5770 C   0  0  0  0  0  0  0  0  0  0  0  0
    9.5560   46.8710   52.7470 S   0  0  0  0  0  0  0  0  0  0  0  0
    8.0930   47.4500   53.4390 C   0  0  0  0  0  0  0  0  0  0  0  0
    7.0530   47.8140   53.9150 N   0  0  0  0  0  0  0  0  0  0  0  0
    5.8040   44.3690   55.5150 Cl  0  0  0  0  0  0  0  0  0  0  0  0
    3.0770   44.9330   57.1040 Cl  0  0  0  0  0  0  0  0  0  0  0  0
   10.7580   44.8760   50.6960 H   0  0  0  0  0  0  0  0  0  0  0  0
    4.6210   42.6940   51.5260 H   0  0  0  0  0  0  0  0  0  0  0  0
    7.5670   41.9340   49.4060 H   0  0  0  0  0  0  0  0  0  0  0  0
    5.3940   40.6050   50.8780 H   0  0  0  0  0  0  0  0  0  0  0  0
    6.5000   39.8780   49.6870 H   0  0  0  0  0  0  0  0  0  0  0  0
    6.3680   41.1980   47.2680 H   0  0  0  0  0  0  0  0  0  0  0  0
    4.6780   41.6080   45.5620 H   0  0  0  0  0  0  0  0  0  0  0  0
    1.5870   41.3250   48.3320 H   0  0  0  0  0  0  0  0  0  0  0  0
    3.1850   40.8930   50.1440 H   0  0  0  0  0  0  0  0  0  0  0  0
    1.1030   45.4490   55.2240 H   0  0  0  0  0  0  0  0  0  0  0  0
    1.1090   45.5420   52.7660 H   0  0  0  0  0  0  0  0  0  0  0  0
    3.1830   45.0690   51.4970 H   0  0  0  0  0  0  0  0  0  0  0  0
  1  2  2  0  0  0  0
  1  5  1  0  0  0  0
  1 24  1  0  0  0  0
  2  3  1  0  0  0  0
  2  6  1  0  0  0  0
  3  4  1  0  0  0  0
  3  9  1  0  0  0  0
  4  5  2  0  0  0  0
  5 29  1  0  0  0  0
  6  7  2  0  0  0  0
  7  8  1  0  0  0  0
  7 11  1  0  0  0  0
  8  9  2  0  0  0  0
  8 30  1  0  0  0  0
  9 10  1  0  0  0  0
 10 12  1  0  0  0  0
 10 31  1  0  0  0  0
 11 19  1  0  0  0  0
 11 23  2  0  0  0  0
 12 13  1  0  0  0  0
 12 32  1  0  0  0  0
 12 33  1  0  0  0  0
 13 14  1  0  0  0  0
 13 18  2  0  0  0  0
 14 15  2  0  0  0  0
 14 34  1  0  0  0  0
 15 16  1  0  0  0  0
 15 35  1  0  0  0  0
 16 17  2  0  0  0  0
 17 18  1  0  0  0  0
 17 36  1  0  0  0  0
 18 37  1  0  0  0  0
 19 20  2  0  0  0  0
 19 27  1  0  0  0  0
 20 21  1  0  0  0  0
 20 28  1  0  0  0  0
 21 22  2  0  0  0  0
 21 38  1  0  0  0  0
 22 23  1  0  0  0  0
 22 39  1  0  0  0  0
 23 40  1  0  0  0  0
 24 25  1  0  0  0  0
 25 26  3  0  0  0  0
M  END
>  <Charged>
Clc1c(Cl)cccc1C1=Nc2c(SC#N)cnn2C(NCc2ccncc2)=C1

$$$$
2R3Q
  MOE2016           3D

 44 47  0  0  0  0  0  0  0  0999 V2000
    9.1250   45.1030   51.9780 C   0  0  0  0  0  0  0  0  0  0  0  0
    7.8110   44.7190   51.8310 C   0  0  0  0  0  0  0  0  0  0  0  0
    7.7950   43.7980   50.8670 N   0  0  0  0  0  0  0  0  0  0  0  0
    9.0420   43.5690   50.3370 N   0  0  0  0  0  0  0  0  0  0  0  0
    9.8590   44.3530   51.0240 C   0  0  0  0  0  0  0  0  0  0  0  0
    6.6870   45.1130   52.5300 N   0  0  0  0  0  0  0  0  0  0  0  0
    5.5840   44.4850   52.2060 C   0  0  0  0  0  0  0  0  0  0  0  0
    5.5620   43.4260   51.2820 C   0  0  0  0  0  0  0  0  0  0  0  0
    6.6950   43.0740   50.5990 C   0  0  0  0  0  0  0  0  0  0  0  0
    6.8440   42.0370   49.7090 N   0  0  0  0  0  0  0  0  0  0  0  0
    4.3510   44.8480   52.8990 C   0  0  0  0  0  0  0  0  0  0  0  0
    5.8260   40.9330   49.6750 C   0  0  0  0  0  0  0  0  0  0  0  0
    4.9470   41.0700   48.4310 C   0  0  0  0  0  0  0  0  0  0  0  0
    5.4840   41.3090   47.1930 C   0  0  0  0  0  0  0  0  0  0  0  0
    4.6810   41.4710   45.9800 N   0  0  0  0  0  0  0  0  0  0  0  0
    3.2380   41.3520   46.1580 C   0  0  0  0  0  0  0  0  0  0  0  0
    2.6820   41.1060   47.3900 C   0  0  0  0  0  0  0  0  0  0  0  0
    3.5160   40.9550   48.5350 C   0  0  0  0  0  0  0  0  0  0  0  0
    4.2610   44.8230   54.3120 C   0  0  0  0  0  0  0  0  0  0  0  0
    3.0370   45.1760   54.9160 C   0  0  0  0  0  0  0  0  0  0  0  0
    1.9480   45.5070   54.1420 C   0  0  0  0  0  0  0  0  0  0  0  0
    2.0370   45.5640   52.7520 C   0  0  0  0  0  0  0  0  0  0  0  0
    3.2380   45.2120   52.1270 C   0  0  0  0  0  0  0  0  0  0  0  0
    9.8280   46.3000   53.2390 Br  0  0  0  0  0  0  0  0  0  0  0  0
    5.4360   44.4520   55.1930 C   0  0  0  0  0  0  0  0  0  0  0  0
    5.2320   41.7670   44.8140 O   0  0  0  0  0  0  0  0  0  0  0  0
   10.9280   44.4120   50.8790 H   0  0  0  0  0  0  0  0  0  0  0  0
    4.6430   42.8850   51.1090 H   0  0  0  0  0  0  0  0  0  0  0  0
    7.6350   42.0170   49.0810 H   0  0  0  0  0  0  0  0  0  0  0  0
    5.2010   40.9900   50.5660 H   0  0  0  0  0  0  0  0  0  0  0  0
    6.3380   39.9710   49.6510 H   0  0  0  0  0  0  0  0  0  0  0  0
    6.5580   41.3820   47.1080 H   0  0  0  0  0  0  0  0  0  0  0  0
    2.5910   41.4600   45.3000 H   0  0  0  0  0  0  0  0  0  0  0  0
    1.6100   41.0270   47.4910 H   0  0  0  0  0  0  0  0  0  0  0  0
    3.1960   41.7100   49.2530 H   0  0  0  0  0  0  0  0  0  0  0  0
    3.3130   39.9620   48.9370 H   0  0  0  0  0  0  0  0  0  0  0  0
    2.9530   45.1870   55.9930 H   0  0  0  0  0  0  0  0  0  0  0  0
    1.0060   45.7270   54.6210 H   0  0  0  0  0  0  0  0  0  0  0  0
    1.1870   45.8770   52.1630 H   0  0  0  0  0  0  0  0  0  0  0  0
    3.3080   45.2210   51.0490 H   0  0  0  0  0  0  0  0  0  0  0  0
    6.2960   44.2080   54.5690 H   0  0  0  0  0  0  0  0  0  0  0  0
    5.1740   43.5880   55.8030 H   0  0  0  0  0  0  0  0  0  0  0  0
    5.6840   45.2930   55.8410 H   0  0  0  0  0  0  0  0  0  0  0  0
    6.1830   41.7900   44.9400 H   0  0  0  0  0  0  0  0  0  0  0  0
  1  2  2  0  0  0  0
  1  5  1  0  0  0  0
  1 24  1  0  0  0  0
  2  3  1  0  0  0  0
  2  6  1  0  0  0  0
  3  4  1  0  0  0  0
  3  9  1  0  0  0  0
  4  5  2  0  0  0  0
  5 27  1  0  0  0  0
  6  7  2  0  0  0  0
  7  8  1  0  0  0  0
  7 11  1  0  0  0  0
  8  9  2  0  0  0  0
  8 28  1  0  0  0  0
  9 10  1  0  0  0  0
 10 12  1  0  0  0  0
 10 29  1  0  0  0  0
 11 19  1  0  0  0  0
 11 23  2  0  0  0  0
 12 13  1  0  0  0  0
 12 30  1  0  0  0  0
 12 31  1  0  0  0  0
 13 14  2  0  0  0  0
 13 18  1  0  0  0  0
 14 15  1  0  0  0  0
 14 32  1  0  0  0  0
 15 16  1  0  0  0  0
 15 26  1  0  0  0  0
 16 17  2  0  0  0  0
 16 33  1  0  0  0  0
 17 18  1  0  0  0  0
 17 34  1  0  0  0  0
 18 35  1  0  0  0  0
 18 36  1  0  0  0  0
 19 20  2  0  0  0  0
 19 25  1  0  0  0  0
 20 21  1  0  0  0  0
 20 37  1  0  0  0  0
 21 22  2  0  0  0  0
 21 38  1  0  0  0  0
 22 23  1  0  0  0  0
 22 39  1  0  0  0  0
 23 40  1  0  0  0  0
 25 41  1  0  0  0  0
 25 42  1  0  0  0  0
 25 43  1  0  0  0  0
 26 44  1  0  0  0  0
M  END
>  <Charged>
Brc1c2n(C(NCC3=CN(O)C=CC3)=CC(c3c(C)cccc3)=N2)nc1

$$$$
2R3R
  MOE2016           3D

 38 41  0  0  0  0  0  0  0  0999 V2000
    8.8900   44.9690   51.7120 C   0  0  0  0  0  0  0  0  0  0  0  0
    7.5840   44.4260   51.5870 C   0  0  0  0  0  0  0  0  0  0  0  0
    7.7320   43.4090   50.6040 N   0  0  0  0  0  0  0  0  0  0  0  0
    8.9840   43.3370   50.1110 N   0  0  0  0  0  0  0  0  0  0  0  0
    9.7010   44.2050   50.7790 C   0  0  0  0  0  0  0  0  0  0  0  0
    6.3780   44.6800   52.2230 N   0  0  0  0  0  0  0  0  0  0  0  0
    5.3500   43.8720   51.8830 C   0  0  0  0  0  0  0  0  0  0  0  0
    5.4520   42.8190   50.9320 C   0  0  0  0  0  0  0  0  0  0  0  0
    6.6830   42.5640   50.3090 C   0  0  0  0  0  0  0  0  0  0  0  0
    6.8820   41.5820   49.3870 N   0  0  0  0  0  0  0  0  0  0  0  0
    4.0130   44.1060   52.4850 C   0  0  0  0  0  0  0  0  0  0  0  0
    5.8700   40.5660   49.2560 C   0  0  0  0  0  0  0  0  0  0  0  0
    5.0150   40.7580   48.0670 C   0  0  0  0  0  0  0  0  0  0  0  0
    5.5870   40.8810   46.8250 C   0  0  0  0  0  0  0  0  0  0  0  0
    4.7580   41.0270   45.7000 C   0  0  0  0  0  0  0  0  0  0  0  0
    3.4130   41.1000   45.7840 N   0  0  0  0  0  0  0  0  0  0  0  0
    2.8740   40.9970   47.0050 C   0  0  0  0  0  0  0  0  0  0  0  0
    3.6250   40.8110   48.1790 C   0  0  0  0  0  0  0  0  0  0  0  0
    3.7030   45.3500   53.0330 C   0  0  0  0  0  0  0  0  0  0  0  0
    2.4530   45.5660   53.6190 C   0  0  0  0  0  0  0  0  0  0  0  0
    1.4870   44.5720   53.6040 C   0  0  0  0  0  0  0  0  0  0  0  0
    1.7720   43.3170   53.0370 C   0  0  0  0  0  0  0  0  0  0  0  0
    3.0390   43.0830   52.4690 C   0  0  0  0  0  0  0  0  0  0  0  0
    9.4610   46.3420   52.7580 Br  0  0  0  0  0  0  0  0  0  0  0  0
   10.7650   44.3370   50.6520 H   0  0  0  0  0  0  0  0  0  0  0  0
    4.5870   42.2190   50.6910 H   0  0  0  0  0  0  0  0  0  0  0  0
    7.7130   41.5670   48.8130 H   0  0  0  0  0  0  0  0  0  0  0  0
    5.2400   40.5860   50.1450 H   0  0  0  0  0  0  0  0  0  0  0  0
    6.3590   39.5950   49.1800 H   0  0  0  0  0  0  0  0  0  0  0  0
    6.6610   40.8660   46.7140 H   0  0  0  0  0  0  0  0  0  0  0  0
    5.2180   41.0830   44.7240 H   0  0  0  0  0  0  0  0  0  0  0  0
    1.8000   41.0600   47.0930 H   0  0  0  0  0  0  0  0  0  0  0  0
    3.1400   40.7120   49.1390 H   0  0  0  0  0  0  0  0  0  0  0  0
    4.4300   46.1480   53.0050 H   0  0  0  0  0  0  0  0  0  0  0  0
    2.2380   46.5150   54.0870 H   0  0  0  0  0  0  0  0  0  0  0  0
    0.5120   44.7620   54.0290 H   0  0  0  0  0  0  0  0  0  0  0  0
    1.0240   42.5380   53.0370 H   0  0  0  0  0  0  0  0  0  0  0  0
    3.2650   42.1260   52.0230 H   0  0  0  0  0  0  0  0  0  0  0  0
  1  2  2  0  0  0  0
  1  5  1  0  0  0  0
  1 24  1  0  0  0  0
  2  3  1  0  0  0  0
  2  6  1  0  0  0  0
  3  4  1  0  0  0  0
  3  9  1  0  0  0  0
  4  5  2  0  0  0  0
  5 25  1  0  0  0  0
  6  7  2  0  0  0  0
  7  8  1  0  0  0  0
  7 11  1  0  0  0  0
  8  9  2  0  0  0  0
  8 26  1  0  0  0  0
  9 10  1  0  0  0  0
 10 12  1  0  0  0  0
 10 27  1  0  0  0  0
 11 19  1  0  0  0  0
 11 23  2  0  0  0  0
 12 13  1  0  0  0  0
 12 28  1  0  0  0  0
 12 29  1  0  0  0  0
 13 14  1  0  0  0  0
 13 18  2  0  0  0  0
 14 15  2  0  0  0  0
 14 30  1  0  0  0  0
 15 16  1  0  0  0  0
 15 31  1  0  0  0  0
 16 17  2  0  0  0  0
 17 18  1  0  0  0  0
 17 32  1  0  0  0  0
 18 33  1  0  0  0  0
 19 20  2  0  0  0  0
 19 34  1  0  0  0  0
 20 21  1  0  0  0  0
 20 35  1  0  0  0  0
 21 22  2  0  0  0  0
 21 36  1  0  0  0  0
 22 23  1  0  0  0  0
 22 37  1  0  0  0  0
 23 38  1  0  0  0  0
M  END
>  <Charged>
Brc1c2n(C(NCc3ccncc3)=CC(c3ccccc3)=N2)nc1

$$$$
